Pcp_File_Version=4
*** BLOCK I: ATMOSPHERIC INFORMATION  **********************************
   MaxAL                    (MaxAL = number of atmospheric data-records)
     11
 DailyVar  SinusVar  lLay  lBCCycles lInterc lDummy  lDummy  lDummy  lDummy  lDummy
       f       f       t       f       f       f       f       f       f       f
 Extinction
    0.39
 hCritS                 (max. allowed pressure head at the soil surface)
      0
       tAtm        Prec       rSoil       rRoot      hCritA          rB          hB          ht    RootDepth
          1           0           0         250      100000           0      172.15           0 
          2           0           0         250      100000           0      172.19           0 
          3           0           0         250      100000           0      172.20           0 
          4           0       0.001         250      100000           0      172.24           0 
          5        0.02           0         250      100000           0      172.21           0 
          6           0           0         250      100000           0      172.15           0 
          7           0           0         250      100000           0      172.21           0 
          8           0           0         250      100000           0      172.19           0 
          9           0           0         250      100000           0      172.07           0 
         10           0           0         250      100000           0      172.08           0 
         11           0           0         250      100000           0      172.11           0 
end*** END OF INPUT FILE 'ATMOSPH.IN' **********************************
