Pcp_File_Version=4
*** BLOCK I: ATMOSPHERIC INFORMATION  **********************************
   MaxAL                    (MaxAL = number of atmospheric data-records)
   4
 hCritS                 (max. allowed pressure head at the soil surface)
   1000
       tAtm        Prec       rSoil       rRoot      hCritA          rB          hB          ht      RootDepth
          1           0           0           0           1           0           0           0
          2         0.1         0.1           0           1           0           0           0
          3         0.2         0.2           0           1           0           0           0
          4         0.3         0.9           0           1           0           0           0
end*** END OF INPUT FILE 'ATMOSPH.IN' **********************************
